// Auto-generated by foamMesh on 18-Jul-2017 at 10:09:33

FoamFile
{
    version     2.0;
    format      ascii;
    class       dictionary;
    object      createPatchDict;
}

pointSync false;

patches
(
    
);
