// Auto-generated by foamMesh on 21-May-2018 at 11:28:27
/*--------------------------------*- C++ -*----------------------------------* 
| =========                 |                                                 | 
| \      /  F ield         | OpenFOAM: The Open Source CFD Toolbox           | 
|  \    /   O peration     | Version:  2.4.0                                 | 
|   \  /    A nd           | Web:      www.OpenFOAM.org                      | 
|    \/     M anipulation  |                                                 | 
*---------------------------------------------------------------------------*/ 
FoamFile 
{
    version     2.0;
    format      ascii;
    class       volVectorField;
    location    "0";
    object      U;
}
// * * * * * * * * * * * * * * * * * * * * * * * * * * * * * * * * * * * * * // 

dimensions      [0 1 -1 0 0 0 0];

internalField   uniform (25.73 3.62 0); 


boundaryField 
{ 
    i-00
    { 
        type    freestream;
        freestreamValue $internalField;
        value   $internalField;
    }
    w-01
    { 
        type    noSlip;
    }
    o-00
    { 
        type    freestream;
        freestreamValue $internalField;
        value   $internalField;
    }
    w-00
    { 
        type    noSlip;
    }
    s-00
    { 
        type    symmetry;
    }
}

// * * * * * * * * * * * * * * * * * * * * * * * * * * * * * * * * * * * * * // 
