/*--------------------------------*- C++ -*----------------------------------*\
| =========                 |                                                 |
| \\      /  F ield         | OpenFOAM: The Open Source CFD Toolbox           |
|  \\    /   O peration     | Version:  4.0                                   |
|   \\  /    A nd           | Web:      www.OpenFOAM.org                      |
|    \\/     M anipulation  |                                                 |
\*---------------------------------------------------------------------------*/
FoamFile
{
    version     2.0;
    format      ascii;
    class       volScalarField;
    location    "0";
    object      p;
}
// * * * * * * * * * * * * * * * * * * * * * * * * * * * * * * * * * * * * * //

dimensions      [ 1 -1 -2 0 0 0 0 ];

internalField   uniform 1e5;

boundaryField
{
    i-00
    {
        type            totalPressure;
        gamma           1.4;
        p0              uniform 1.0e5;
        value           uniform 1.0e5;
//        type            fixedValue;
//        value           uniform 1.0e5;
    }
    o-00
    {
//        type            totalPressure;
//        gamma           1.4;
//        p0              uniform 1.0e5;
//        value           uniform 1.00e5;
        type            fixedValue;
        value           uniform 0.8e5;
    }
    w-00
    {
        type            zeroGradient;
    }
    s-00
    {
        type            symmetry;
    }
    wedge-front
    {
        type            symmetry;
    }
    wedge-rear
    {
        type            symmetry;
    }
}



// ************************************************************************* //
